X6.pdb
 OpenBabel08092621413D

 55 60  0  0  1  0  0  0  0  0999 V2000
   -3.3510  -14.8670   -4.4610 C   0  0  1  0  0  0  0  0  0  0  0  0
   -3.3570  -16.1250   -3.8760 O   0  0  0  0  0  0  0  0  0  0  0  0
   -2.0770  -14.1060   -4.2780 C   0  0  2  0  0  0  0  0  0  0  0  0
   -1.8380  -13.7680   -2.8320 O   0  0  0  0  0  0  0  0  0  0  0  0
   -1.9670  -12.7860   -4.9660 C   0  0  1  0  0  0  0  0  0  0  0  0
   -0.7200  -12.1980   -4.9150 O   0  0  0  0  0  0  0  0  0  0  0  0
   -2.4400  -12.9580   -6.4980 C   0  0  2  0  0  0  0  0  0  0  0  0
   -2.6650  -11.8260   -7.0520 O   0  0  0  0  0  0  0  0  0  0  0  0
   -3.7410  -13.7910   -6.5580 C   0  0  0  0  0  0  0  0  0  0  0  0
   -3.6280  -15.0470   -5.8370 O   0  0  0  0  0  0  0  0  0  0  0  0
   -2.3160  -11.7230   -8.4010 C   0  0  1  0  0  0  0  0  0  0  0  0
   -3.1730  -10.6570   -8.9500 C   0  0  2  0  0  0  0  0  0  0  0  0
   -4.5570  -11.0270   -8.9520 O   0  0  0  0  0  0  0  0  0  0  0  0
   -2.7260  -10.2370  -10.4110 C   0  0  1  0  0  0  0  0  0  0  0  0
   -3.5020   -9.1780  -10.9530 O   0  0  0  0  0  0  0  0  0  0  0  0
   -1.2490   -9.9790  -10.4350 C   0  0  2  0  0  0  0  0  0  0  0  0
   -0.8650   -9.8560  -11.7970 O   0  0  0  0  0  0  0  0  0  0  0  0
   -0.6060  -11.1540   -9.8410 C   0  0  0  0  0  0  0  0  0  0  0  0
   -0.9600  -11.4010   -8.4580 O   0  0  0  0  0  0  0  0  0  0  0  0
    0.2790   -9.0930  -11.9500 C   0  0  1  0  0  0  0  0  0  0  0  0
    1.0160   -9.5490  -13.2040 C   0  0  2  0  0  0  0  0  0  0  0  0
    1.5050  -10.8630  -12.9940 O   0  0  0  0  0  0  0  0  0  0  0  0
    2.1330   -8.6580  -13.5190 C   0  0  1  0  0  0  0  0  0  0  0  0
    2.6290   -8.9870  -14.8300 O   0  0  0  0  0  0  0  0  0  0  0  0
    1.7770   -7.2300  -13.4490 C   0  0  2  0  0  0  0  0  0  0  0  0
    2.9480   -6.4110  -13.4180 O   0  0  0  0  0  0  0  0  0  0  0  0
    1.0020   -6.9020  -12.1890 C   0  0  0  0  0  0  0  0  0  0  0  0
   -0.1230   -7.7630  -12.0800 O   0  0  0  0  0  0  0  0  0  0  0  0
    3.4150   -5.4970  -14.4420 C   0  0  1  0  0  0  0  0  0  0  0  0
    2.3120   -4.7540  -15.1390 C   0  0  2  0  0  0  0  0  0  0  0  0
    1.6530   -5.5860  -16.1260 O   0  0  0  0  0  0  0  0  0  0  0  0
    2.7660   -3.4270  -15.8020 C   0  0  1  0  0  0  0  0  0  0  0  0
    1.5910   -2.6480  -15.8760 O   0  0  0  0  0  0  0  0  0  0  0  0
    3.9010   -2.7480  -15.1210 C   0  0  2  0  0  0  0  0  0  0  0  0
    4.7050   -2.1200  -16.1130 O   0  0  0  0  0  0  0  0  0  0  0  0
    4.8090   -3.6910  -14.3570 C   0  0  0  0  0  0  0  0  0  0  0  0
    4.1130   -4.5810  -13.5980 O   0  0  0  0  0  0  0  0  0  0  0  0
    5.3590   -0.9240  -15.7810 C   0  0  1  0  0  0  0  0  0  0  0  0
    6.7470   -0.9060  -16.3750 C   0  0  2  0  0  0  0  0  0  0  0  0
    7.5710   -1.8620  -15.6820 O   0  0  0  0  0  0  0  0  0  0  0  0
    7.3830    0.4370  -16.2390 C   0  0  1  0  0  0  0  0  0  0  0  0
    8.6140    0.4540  -16.9520 O   0  0  0  0  0  0  0  0  0  0  0  0
    6.4960    1.5230  -16.7060 C   0  0  2  0  0  0  0  0  0  0  0  0
    7.0550    2.7560  -16.3410 O   0  0  0  0  0  0  0  0  0  0  0  0
    5.0930    1.3930  -16.0840 C   0  0  0  0  0  0  0  0  0  0  0  0
    4.5510    0.1060  -16.3880 O   0  0  0  0  0  0  0  0  0  0  0  0
    6.6130    3.9310  -16.9280 C   0  0  1  0  0  0  0  0  0  0  0  0
    7.0420    5.1280  -16.0700 C   0  0  2  0  0  0  0  0  0  0  0  0
    6.3470    5.1440  -14.8620 O   0  0  0  0  0  0  0  0  0  0  0  0
    6.7670    6.4450  -16.7860 C   0  0  1  0  0  0  0  0  0  0  0  0
    7.3040    7.4990  -15.9620 O   0  0  0  0  0  0  0  0  0  0  0  0
    7.2750    6.4700  -18.1420 C   0  0  2  0  0  0  0  0  0  0  0  0
    6.7930    7.6050  -18.8820 O   0  0  0  0  0  0  0  0  0  0  0  0
    6.8560    5.2640  -18.8600 C   0  0  0  0  0  0  0  0  0  0  0  0
    7.2860    4.0490  -18.1820 O   0  0  0  0  0  0  0  0  0  0  0  0
  1  3  1  0  0  0  0
  1 10  1  0  0  0  0
  1  2  1  1  0  0  0
  3  4  1  1  0  0  0
  3  5  1  0  0  0  0
  5  6  1  6  0  0  0
  5  7  1  0  0  0  0
  7  8  1  1  0  0  0
  7  9  1  0  0  0  0
  9 10  1  0  0  0  0
 11  8  1  1  0  0  0
 11 12  1  0  0  0  0
 11 19  1  0  0  0  0
 12 13  1  6  0  0  0
 12 14  1  0  0  0  0
 14 15  1  1  0  0  0
 14 16  1  0  0  0  0
 16 17  1  6  0  0  0
 16 18  1  0  0  0  0
 18 19  1  0  0  0  0
 20 17  1  6  0  0  0
 20 21  1  0  0  0  0
 20 28  1  0  0  0  0
 21 22  1  1  0  0  0
 21 23  1  0  0  0  0
 23 24  1  6  0  0  0
 23 25  1  0  0  0  0
 25 26  1  1  0  0  0
 25 27  1  0  0  0  0
 27 28  1  0  0  0  0
 29 26  1  1  0  0  0
 29 30  1  0  0  0  0
 29 37  1  0  0  0  0
 30 31  1  6  0  0  0
 30 32  1  0  0  0  0
 32 33  1  1  0  0  0
 32 34  1  0  0  0  0
 34 35  1  6  0  0  0
 34 36  1  0  0  0  0
 36 37  1  0  0  0  0
 38 35  1  6  0  0  0
 38 39  1  0  0  0  0
 38 46  1  0  0  0  0
 39 40  1  1  0  0  0
 39 41  1  0  0  0  0
 41 42  1  6  0  0  0
 41 43  1  0  0  0  0
 43 44  1  1  0  0  0
 43 45  1  0  0  0  0
 45 46  1  0  0  0  0
 47 44  1  1  0  0  0
 47 48  1  0  0  0  0
 47 55  1  0  0  0  0
 48 49  1  1  0  0  0
 48 50  1  0  0  0  0
 50 51  1  1  0  0  0
 50 52  1  0  0  0  0
 52 53  1  6  0  0  0
 52 54  1  0  0  0  0
 54 55  1  0  0  0  0
M  END
>  <ANISOU>
    1  C1  XYP B   1     3464   2708   1580   -821    339    296       C  
    2  O1  XYP B   1     3947   2967   1754   -528    239    291       O  
    3  C2  XYP B   1     3306   2648   1453   -829    300    127       C  
    4  O2  XYP B   1     3871   2853   1443   -622    216    166       O  
    5  C3  XYP B   1     2574   2454   1347  -1082    434     -6       C  
    6  O3  XYP B   1     2269   2627   1376   -951    436   -244       O  
    7  C4  XYP B   1     2241   2298   1326  -1005    527     99       C  
    8  O4  XYP B   1     1810   2345   1242   -546    697     60       O  
    9  C5  XYP B   1     2739   2448   1465  -1004    405    293       C  
   10  O5  XYP B   1     3297   2680   1556   -845    360    343       O  
   11  C1  XYP B   2     1481   2369   1202   -503    528     66       C  
   12  C2  XYP B   2     1384   2716   1451   -280    458    131       C  
   13  O2  XYP B   2     1508   3148   1670   -337    323    137       O  
   14  C3  XYP B   2     1400   2537   1428   -171    222    169       C  
   15  O3  XYP B   2     1531   3022   1709    186    147    161       O  
   16  C4  XYP B   2      991   1931   1059   -265    265    213       C  
   17  O4  XYP B   2      966   1562    839   -173    107     90       O  
   18  C5  XYP B   2     1294   2032    977   -298    312    194       C  
   19  O5  XYP B   2     1363   2081    986   -519    370     72       O  
   20  C1  XYP B   3      852   1248    688     26     53     66       C  
   21  C2  XYP B   3      877   1121    671     48     16     59       C  
   22  O2  XYP B   3     1078   1095    773     88    -88      0       O  
   23  C3  XYP B   3      907    982    553      0    -21     37       C  
   24  O3  XYP B   3     1077   1187    469     -9     -5    -52       O  
   25  C4  XYP B   3      985   1035    598     -1    -63     97       C  
   26  O4  XYP B   3     1125   1019    625   -237   -254    175       O  
   27  C5  XYP B   3     1159   1264    654   -138     21     77       C  
   28  O5  XYP B   3      998   1267    722     90     51     -6       O  
   29  C1  XYP B   4      970   1212    564   -139   -186     37       C  
   30  C2  XYP B   4      793   1154    523    -48    -97     59       C  
   31  O2  XYP B   4     1124   1153    561      3   -147    -18       O  
   32  C3  XYP B   4      736   1042    551    198     35    136       C  
   33  O3  XYP B   4      883   1100    683    113     68    171       O  
   34  C4  XYP B   4      759   1169    510     -2     10     85       C  
   35  O4  XYP B   4      976   1120    503   -122    183    -35       O  
   36  C5  XYP B   4     1161   1330    628    -49   -170    220       C  
   37  O5  XYP B   4     1040   1410    665    -66   -229     41       O  
   38  C1  XYP B   5      815   1088    621     -3      5    -18       C  
   39  C2  XYP B   5      758   1092    572    173    -17    -55       C  
   40  O2  XYP B   5      901   1084    560    109     92      3       O  
   41  C3  XYP B   5      779   1080    623     37    -39      4       C  
   42  O3  XYP B   5      862   1183    678    135    115   -101       O  
   43  C4  XYP B   5      898    980    730   -157    -78    -98       C  
   44  O4  XYP B   5     1133    979    902     -7    -23   -112       O  
   45  C5  XYP B   5      960    959    791    -91     54    -67       C  
   46  O5  XYP B   5      778   1101    656     21    -15      1       O  
   47  C1  XYP B   6     1994   1259   1060     42   -127    -31       C  
   48  C2  XYP B   6     2860   1428   1258    -29   -127    -12       C  
   49  O2  XYP B   6     2869   1679   1406    325    109   -204       O  
   50  C3  XYP B   6     3767   1616   1423   -163   -215     10       C  
   51  O3  XYP B   6     4461   1856   1566   -213   -188    -88       O  
   52  C4  XYP B   6     3789   1597   1440   -256   -336    160       C  
   53  O4  XYP B   6     4546   1960   1644   -257   -317    250       O  
   54  C5  XYP B   6     3056   1367   1295    -21   -430    104       C  
   55  O5  XYP B   6     2271   1322   1130      4   -319    -12       O  

$$$$
